performance/linearized_pglib_scopf_baseline/pglib_opf_case5_pjm.json
{"elements": {"bus": {"1": {"matpower_bustype": "PV", "area": 1.0, "vm": 1.0, "va": -3.2534646455008116, "base_kv": 230.0, "zone": 1.0, "v_min": 0.9, "v_max": 1.1, "lmp": 16.977358823011187, "pl": 0.0}, "2": {"matpower_bustype": "PQ", "area": 1.0, "vm": 1.0, "va": 0.7670037501801206, "base_kv": 230.0, "zone": 1.0, "v_min": 0.9, "v_max": 1.1, "lmp": 26.38445951898511, "pl": 300.0}, "3": {"matpower_bustype": "PV", "area": 1.0, "vm": 1.0, "va": 0.45585389870194987, "base_kv": 230.0, "zone": 1.0, "v_min": 0.9, "v_max": 1.1, "lmp": 29.999999999999996, "pl": 300.0}, "4": {"matpower_bustype": "ref", "area": 1.0, "vm": 1.0, "va": -0.0, "base_kv": 230.0, "zone": 1.0, "v_min": 0.9, "v_max": 1.1, "lmp": 39.94273632279094, "pl": 400.0}, "5": {"matpower_bustype": "PV", "area": 1.0, "vm": 1.0, "va": -4.084043163692509, "base_kv": 230.0, "zone": 1.0, "v_min": 0.9, "v_max": 1.1, "lmp": 9.999999999999995, "pl": 0.0}}, "load": {"load_2": {"in_service": true, "p_load": 300.0, "q_load": 98.61, "bus": "2"}, "load_3": {"in_service": true, "p_load": 300.0, "q_load": 98.61, "bus": "3"}, "load_4": {"in_service": true, "p_load": 400.0, "q_load": 131.47, "bus": "4"}}, "generator": {"1": {"bus": "1", "pg": 40.0, "qg": 0.0, "vg": 1.0, "mbase": 100.0, "in_service": true, "p_min": 0.0, "p_max": 40.0, "q_min": -30.0, "q_max": 30.0, "generator_type": "thermal", "p_cost": {"data_type": "cost_curve", "cost_curve_type": "piecewise", "values": [[0.0, 0.0], [13.333333333333334, 186.66666666666669], [26.666666666666668, 373.33333333333337], [40.0, 560.0]]}, "startup_cost": 0.0, "shutdown_cost": 0.0}, "2": {"bus": "1", "pg": 170.0, "qg": 0.0, "vg": 1.0, "mbase": 100.0, "in_service": true, "p_min": 0.0, "p_max": 170.0, "q_min": -127.49999999999999, "q_max": 127.49999999999999, "generator_type": "thermal", "p_cost": {"data_type": "cost_curve", "cost_curve_type": "piecewise", "values": [[0.0, 0.0], [56.666666666666664, 850.0], [113.33333333333333, 1700.0], [170.0, 2550.0]]}, "startup_cost": 0.0, "shutdown_cost": 0.0}, "3": {"bus": "3", "pg": 323.49484626905115, "qg": 0.0, "vg": 1.0, "mbase": 100.0, "in_service": true, "p_min": 0.0, "p_max": 520.0, "q_min": -390.0, "q_max": 390.0, "generator_type": "thermal", "p_cost": {"data_type": "cost_curve", "cost_curve_type": "piecewise", "values": [[0.0, 0.0], [173.33333333333334, 5200.0], [346.6666666666667, 10400.0], [520.0, 15600.0]]}, "startup_cost": 0.0, "shutdown_cost": 0.0}, "4": {"bus": "4", "pg": 0.0, "qg": 0.0, "vg": 1.0, "mbase": 100.0, "in_service": true, "p_min": 0.0, "p_max": 200.0, "q_min": -150.0, "q_max": 150.0, "generator_type": "thermal", "p_cost": {"data_type": "cost_curve", "cost_curve_type": "piecewise", "values": [[0.0, 0.0], [66.66666666666667, 2666.666666666667], [133.33333333333334, 5333.333333333334], [200.0, 8000.0]]}, "startup_cost": 0.0, "shutdown_cost": 0.0}, "5": {"bus": "5", "pg": 466.5051537309488, "qg": 0.0, "vg": 1.0, "mbase": 100.0, "in_service": true, "p_min": 0.0, "p_max": 600.0, "q_min": -450.0, "q_max": 450.0, "generator_type": "thermal", "p_cost": {"data_type": "cost_curve", "cost_curve_type": "piecewise", "values": [[0.0, 0.0], [200.0, 2000.0], [400.0, 4000.0], [600.0, 6000.0]]}, "startup_cost": 0.0, "shutdown_cost": 0.0}}, "branch": {"1": {"from_bus": "1", "to_bus": "2", "resistance": 0.00281, "reactance": 0.0281, "charging_susceptance": 0.00712, "branch_type": "line", "rating_long_term": 400.0, "rating_short_term": 400.0, "rating_emergency": 400.0, "in_service": true, "angle_diff_min": -30.0, "angle_diff_max": 30.0, "pf": 249.71676504272753, "qf": null, "pt": null, "qt": null}, "2": {"from_bus": "1", "to_bus": "4", "resistance": 0.00304, "reactance": 0.0304, "charging_susceptance": 0.00658, "branch_type": "line", "rating_long_term": 426.0, "rating_short_term": 426.0, "rating_emergency": 426.0, "in_service": true, "angle_diff_min": -30.0, "angle_diff_max": 30.0, "pf": 186.7883886882213, "qf": null, "pt": null, "qt": null}, "3": {"from_bus": "1", "to_bus": "5", "resistance": 0.00064, "reactance": 0.0064, "charging_susceptance": 0.03126, "branch_type": "line", "rating_long_term": 426.0, "rating_short_term": 426.0, "rating_emergency": 426.0, "in_service": true, "angle_diff_min": -30.0, "angle_diff_max": 30.0, "pf": -226.50515373094896, "qf": null, "pt": null, "qt": null}, "4": {"from_bus": "2", "to_bus": "3", "resistance": 0.00108, "reactance": 0.0108, "charging_susceptance": 0.01852, "branch_type": "line", "rating_long_term": 426.0, "rating_short_term": 426.0, "rating_emergency": 426.0, "in_service": true, "angle_diff_min": -30.0, "angle_diff_max": 30.0, "pf": -50.28323495727244, "qf": null, "pt": null, "qt": null}, "5": {"from_bus": "3", "to_bus": "4", "resistance": 0.00297, "reactance": 0.0297, "charging_susceptance": 0.00674, "branch_type": "line", "rating_long_term": 426.0, "rating_short_term": 426.0, "rating_emergency": 426.0, "in_service": true, "angle_diff_min": -30.0, "angle_diff_max": 30.0, "pf": -26.788388688221314, "qf": null, "pt": null, "qt": null}, "6": {"from_bus": "4", "to_bus": "5", "resistance": 0.00297, "reactance": 0.0297, "charging_susceptance": 0.00674, "branch_type": "line", "rating_long_term": 240.0, "rating_short_term": 240.0, "rating_emergency": 240.0, "in_service": true, "angle_diff_min": -30.0, "angle_diff_max": 30.0, "pf": -240.00000000000003, "qf": null, "pt": null, "qt": null}}, "contingency": {"1": {"branch_contingency": "1"}, "2": {"branch_contingency": "2"}, "3": {"branch_contingency": "3"}, "4": {"branch_contingency": "4"}, "5": {"branch_contingency": "5"}, "6": {"branch_contingency": "6"}}}, "system": {"model_name": "pglib_opf_case5_pjm", "mpc_version": "'2'", "baseMVA": 100.0, "reference_bus": "4", "reference_bus_angle": 0.0, "load_mismatch_cost": 1000000.0, "total_cost": 17479.89692538102, "p_balance_violation": 0.0}}